*SPEF "IEEE 1481-1998"
*DESIGN "i2c_master_top"
*DATE "Thu Apr 15 09:46:59 2021"
*VENDOR "AUC CSCE Department"
*PROGRAM "SPEF Extractor"
*VERSION "1.0"
*DESIGN_FLOW "PIN_CAP NONE"
*DIVIDER /
*DELIMITER :
*BUS_DELIMITER []
*T_UNIT 1.00000 NS
*C_UNIT 1.00000 PF
*R_UNIT 1.00000 OHM
*L_UNIT 1.00000 HENRY


*NAME_MAP
*0 arst_i
*1 scl_pad_i
*2 scl_pad_o
*3 scl_padoen_o
*4 sda_pad_i
*5 sda_pad_o
*6 sda_padoen_o
*7 wb_ack_o
*8 wb_adr_i[0]
*9 wb_adr_i[1]
*10 wb_adr_i[2]
*11 wb_clk_i
*12 wb_cyc_i
*13 wb_dat_i[0]
*14 wb_dat_i[1]
*15 wb_dat_i[2]
*16 wb_dat_i[3]
*17 wb_dat_i[4]
*18 wb_dat_i[5]
*19 wb_dat_i[6]
*20 wb_dat_i[7]
*21 wb_dat_o[0]
*22 wb_dat_o[1]
*23 wb_dat_o[2]
*24 wb_dat_o[3]
*25 wb_dat_o[4]
*26 wb_dat_o[5]
*27 wb_dat_o[6]
*28 wb_dat_o[7]
*29 wb_inta_o
*30 wb_rst_i
*31 wb_stb_i
*32 wb_we_i
*33 _0000_
*34 _0001_
*35 _0002_
*36 _0003_
*37 _0004_
*38 _0005_
*39 _0006_
*40 _0007_
*41 _0008_
*42 _0009_
*43 _0010_
*44 _0011_
*45 _0012_
*46 _0013_
*47 _0014_
*48 _0015_
*49 _0016_
*50 _0017_
*51 _0018_
*52 _0019_
*53 _0020_
*54 _0021_
*55 _0022_
*56 _0023_
*57 _0024_
*58 _0025_
*59 _0026_
*60 _0027_
*61 _0028_
*62 _0029_
*63 _0030_
*64 _0031_
*65 _0032_
*66 _0033_
*67 _0034_
*68 _0035_
*69 _0036_
*70 _0037_
*71 _0038_
*72 _0039_
*73 _0040_
*74 _0041_
*75 _0042_
*76 _0043_
*77 _0044_
*78 _0045_
*79 _0046_
*80 _0047_
*81 _0048_
*82 _0049_
*83 _0050_
*84 _0051_
*85 _0052_
*86 _0053_
*87 _0054_
*88 _0055_
*89 _0056_
*90 _0057_
*91 _0058_
*92 _0059_
*93 _0060_
*94 _0061_
*95 _0062_
*96 _0063_
*97 _0064_
*98 _0065_
*99 _0066_
*100 _0067_
*101 _0068_
*102 _0069_
*103 _0070_
*104 _0071_
*105 _0072_
*106 _0073_
*107 _0074_
*108 _0075_
*109 _0076_
*110 _0077_
*111 _0078_
*112 _0079_
*113 _0080_
*114 _0081_
*115 _0082_
*116 _0083_
*117 _0084_
*118 _0085_
*119 _0086_
*120 _0087_
*121 _0088_
*122 _0089_
*123 _0090_
*124 _0091_
*125 _0092_
*126 _0093_
*127 _0094_
*128 _0095_
*129 _0096_
*130 _0097_
*131 _0098_
*132 _0099_
*133 _0100_
*134 _0101_
*135 _0102_
*136 _0103_
*137 _0104_
*138 _0105_
*139 _0106_
*140 _0107_
*141 _0108_
*142 _0109_
*143 _0110_
*144 _0111_
*145 _0112_
*146 _0113_
*147 _0114_
*148 _0115_
*149 _0116_
*150 _0117_
*151 _0118_
*152 _0119_
*153 _0120_
*154 _0121_
*155 _0122_
*156 _0123_
*157 _0124_
*158 _0125_
*159 _0126_
*160 _0127_
*161 _0128_
*162 _0129_
*163 _0130_
*164 _0131_
*165 _0132_
*166 _0133_
*167 _0134_
*168 _0135_
*169 _0136_
*170 _0137_
*171 _0138_
*172 _0139_
*173 _0140_
*174 _0141_
*175 _0142_
*176 _0143_
*177 _0144_
*178 _0145_
*179 _0146_
*180 _0147_
*181 _0148_
*182 _0149_
*183 _0150_
*184 _0151_
*185 _0152_
*186 _0153_
*187 _0154_
*188 _0155_
*189 _0156_
*190 _0157_
*191 _0158_
*192 _0159_
*193 _0160_
*194 _0161_
*195 _0162_
*196 _0163_
*197 _0164_
*198 _0165_
*199 _0166_
*200 _0167_
*201 _0168_
*202 _0169_
*203 _0170_
*204 _0171_
*205 _0172_
*206 _0173_
*207 _0174_
*208 _0175_
*209 _0176_
*210 _0177_
*211 _0178_
*212 _0179_
*213 _0180_
*214 _0181_
*215 _0182_
*216 _0183_
*217 _0184_
*218 _0185_
*219 _0186_
*220 _0187_
*221 _0188_
*222 _0189_
*223 _0190_
*224 _0191_
*225 _0192_
*226 _0193_
*227 _0194_
*228 _0195_
*229 _0196_
*230 _0197_
*231 _0198_
*232 _0199_
*233 _0200_
*234 _0201_
*235 _0202_
*236 _0203_
*237 _0204_
*238 _0205_
*239 _0206_
*240 _0207_
*241 _0208_
*242 _0209_
*243 _0210_
*244 _0211_
*245 _0212_
*246 _0213_
*247 _0214_
*248 _0215_
*249 _0216_
*250 _0217_
*251 _0218_
*252 _0219_
*253 _0220_
*254 _0221_
*255 _0222_
*256 _0223_
*257 _0224_
*258 _0225_
*259 _0226_
*260 _0227_
*261 _0228_
*262 _0229_
*263 _0230_
*264 _0231_
*265 _0232_
*266 _0233_
*267 _0234_
*268 _0235_
*269 _0236_
*270 _0237_
*271 _0238_
*272 _0239_
*273 _0240_
*274 _0241_
*275 _0242_
*276 _0243_
*277 _0244_
*278 _0245_
*279 _0246_
*280 _0247_
*281 _0248_
*282 _0249_
*283 _0250_
*284 _0251_
*285 _0252_
*286 _0253_
*287 _0254_
*288 _0255_
*289 _0256_
*290 _0257_
*291 _0258_
*292 _0259_
*293 _0260_
*294 _0261_
*295 _0262_
*296 _0263_
*297 _0264_
*298 _0265_
*299 _0266_
*300 _0267_
*301 _0268_
*302 _0269_
*303 _0270_
*304 _0271_
*305 _0272_
*306 _0273_
*307 _0274_
*308 _0275_
*309 _0276_
*310 _0277_
*311 _0278_
*312 _0279_
*313 _0280_
*314 _0281_
*315 _0282_
*316 _0283_
*317 _0284_
*318 _0285_
*319 _0286_
*320 _0287_
*321 _0288_
*322 _0289_
*323 _0290_
*324 _0291_
*325 _0292_
*326 _0293_
*327 _0294_
*328 _0295_
*329 _0296_
*330 _0297_
*331 _0298_
*332 _0299_
*333 _0300_
*334 _0301_
*335 _0302_
*336 _0303_
*337 _0304_
*338 _0305_
*339 _0306_
*340 _0307_
*341 _0308_
*342 _0309_
*343 _0310_
*344 _0311_
*345 _0312_
*346 _0313_
*347 _0314_
*348 _0315_
*349 _0316_
*350 _0317_
*351 _0318_
*352 _0319_
*353 _0320_
*354 _0321_
*355 _0322_
*356 _0323_
*357 _0324_
*358 _0325_
*359 _0326_
*360 _0327_
*361 _0328_
*362 _0329_
*363 _0330_
*364 _0331_
*365 _0332_
*366 _0333_
*367 _0334_
*368 _0335_
*369 _0336_
*370 _0337_
*371 _0338_
*372 _0339_
*373 _0340_
*374 _0341_
*375 _0342_
*376 _0343_
*377 _0344_
*378 _0345_
*379 _0346_
*380 _0347_
*381 _0348_
*382 _0349_
*383 _0350_
*384 _0351_
*385 _0352_
*386 _0353_
*387 _0354_
*388 _0355_
*389 _0356_
*390 _0357_
*391 _0358_
*392 _0359_
*393 _0360_
*394 _0361_
*395 _0362_
*396 _0363_
*397 _0364_
*398 _0365_
*399 _0366_
*400 _0367_
*401 _0368_
*402 _0369_
*403 _0370_
*404 _0371_
*405 _0372_
*406 _0373_
*407 _0374_
*408 _0375_
*409 _0376_
*410 _0377_
*411 _0378_
*412 _0379_
*413 _0380_
*414 _0381_
*415 _0382_
*416 _0383_
*417 _0384_
*418 _0385_
*419 _0386_
*420 _0387_
*421 _0388_
*422 _0389_
*423 _0390_
*424 _0391_
*425 _0392_
*426 _0393_
*427 _0394_
*428 _0395_
*429 _0396_
*430 _0397_
*431 _0398_
*432 _0399_
*433 _0400_
*434 _0401_
*435 _0402_
*436 _0403_
*437 _0404_
*438 _0405_
*439 _0406_
*440 _0407_
*441 _0408_
*442 _0409_
*443 _0410_
*444 _0411_
*445 _0412_
*446 _0413_
*447 _0414_
*448 _0415_
*449 _0416_
*450 _0417_
*451 _0418_
*452 _0419_
*453 _0420_
*454 _0421_
*455 _0422_
*456 _0423_
*457 _0424_
*458 _0425_
*459 _0426_
*460 _0427_
*461 _0428_
*462 _0429_
*463 _0430_
*464 _0431_
*465 _0432_
*466 _0433_
*467 _0434_
*468 _0435_
*469 _0436_
*470 _0437_
*471 _0438_
*472 _0439_
*473 _0440_
*474 _0441_
*475 _0442_
*476 _0443_
*477 _0444_
*478 _0445_
*479 _0446_
*480 _0447_
*481 _0448_
*482 _0449_
*483 _0450_
*484 _0451_
*485 _0452_
*486 _0453_
*487 _0454_
*488 _0455_
*489 _0456_
*490 _0457_
*491 _0458_
*492 _0459_
*493 _0460_
*494 _0461_
*495 _0462_
*496 _0463_
*497 _0464_
*498 _0465_
*499 _0466_
*500 _0467_
*501 _0468_
*502 _0469_
*503 _0470_
*504 _0471_
*505 _0472_
*506 _0473_
*507 _0474_
*508 _0475_
*509 _0476_
*510 _0477_
*511 _0478_
*512 _0479_
*513 _0480_
*514 _0481_
*515 _0482_
*516 _0483_
*517 _0484_
*518 _0485_
*519 _0486_
*520 _0487_
*521 _0488_
*522 _0489_
*523 _0490_
*524 _0491_
*525 _0492_
*526 _0493_
*527 _0494_
*528 _0495_
*529 _0496_
*530 _0497_
*531 _0498_
*532 _0499_
*533 _0500_
*534 _0501_
*535 _0502_
*536 _0503_
*537 _0504_
*538 _0505_
*539 _0506_
*540 _0507_
*541 _0508_
*542 _0509_
*543 _0510_
*544 _0511_
*545 _0512_
*546 _0513_
*547 _0514_
*548 _0515_
*549 _0516_
*550 _0517_
*551 _0518_
*552 _0519_
*553 _0520_
*554 _0521_
*555 _0522_
*556 _0523_
*557 _0524_
*558 _0525_
*559 _0526_
*560 _0527_
*561 _0528_
*562 _0529_
*563 _0530_
*564 _0531_
*565 _0532_
*566 _0533_
*567 _0534_
*568 _0535_
*569 _0536_
*570 _0537_
*571 _0538_
*572 _0539_
*573 _0540_
*574 _0541_
*575 _0542_
*576 _0543_
*577 _0544_
*578 _0545_
*579 _0546_
*580 _0547_
*581 _0548_
*582 _0549_
*583 _0550_
*584 _0551_
*585 _0552_
*586 _0553_
*587 _0554_
*588 _0555_
*589 _0556_
*590 _0557_
*591 _0558_
*592 _0559_
*593 _0560_
*594 _0561_
*595 _0562_
*596 _0563_
*597 _0564_
*598 _0565_
*599 _0566_
*600 _0567_
*601 _0568_
*602 _0569_
*603 _0570_
*604 _0571_
*605 _0572_
*606 _0573_
*607 _0574_
*608 _0575_
*609 _0576_
*610 _0577_
*611 _0578_
*612 _0579_
*613 _0580_
*614 _0581_
*615 _0582_
*616 _0583_
*617 _0584_
*618 _0585_
*619 _0586_
*620 _0587_
*621 _0588_
*622 _0589_
*623 _0590_
*624 _0591_
*625 _0592_
*626 _0593_
*627 _0594_
*628 _0595_
*629 _0596_
*630 _0597_
*631 _0598_
*632 _0599_
*633 _0600_
*634 _0601_
*635 _0602_
*636 _0603_
*637 _0604_
*638 _0605_
*639 _0606_
*640 _0607_
*641 _0608_
*642 _0609_
*643 _0610_
*644 _0611_
*645 _0612_
*646 _0613_
*647 _0614_
*648 _0615_
*649 _0616_
*650 _0617_
*651 _0618_
*652 _0619_
*653 _0620_
*654 _0621_
*655 _0622_
*656 _0623_
*657 _0624_
*658 _0625_
*659 _0626_
*660 _0627_
*661 _0628_
*662 _0629_
*663 _0630_
*664 _0631_
*665 _0632_
*666 _0633_
*667 _0634_
*668 _0635_
*669 _0636_
*670 _0637_
*671 _0638_
*672 _0639_
*673 _0640_
*674 _0641_
*675 _0642_
*676 _0643_
*677 _0644_
*678 _0645_
*679 _0646_
*680 _0647_
*681 _0648_
*682 _0649_
*683 _0650_
*684 _0651_
*685 _0652_
*686 _0653_
*687 _0654_
*688 _0655_
*689 _0656_
*690 _0657_
*691 _0658_
*692 _0659_
*693 _0660_
*694 _0661_
*695 _0662_
*696 _0663_
*697 _0664_
*698 _0665_
*699 _0666_
*700 _0667_
*701 _0668_
*702 _0669_
*703 _0670_
*704 _0671_
*705 _0672_
*706 _0673_
*707 _0674_
*708 _0675_
*709 _0676_
*710 _0677_
*711 _0678_
*712 _0679_
*713 _0680_
*714 _0681_
*715 _0682_
*716 _0683_
*717 _0684_
*718 _0685_
*719 _0686_
*720 _0687_
*721 _0688_
*722 _0689_
*723 _0690_
*724 _0691_
*725 _0692_
*726 _0693_
*727 _0694_
*728 _0695_
*729 _0696_
*730 _0697_
*731 _0698_
*732 _0699_
*733 _0700_
*734 _0701_
*735 _0702_
*736 _0703_
*737 _0704_
*738 _0705_
*739 _0706_
*740 _0707_
*741 _0708_
*742 _0709_
*743 _0710_
*744 _0711_
*745 _0712_
*746 _0713_
*747 _0714_
*748 _0715_
*749 _0716_
*750 _0717_
*751 _0718_
*752 _0719_
*753 _0720_
*754 _0721_
*755 _0722_
*756 _0723_
*757 _0724_
*758 _0725_
*759 _0726_
*760 _0727_
*761 _0728_
*762 _0729_
*763 _0730_
*764 _0731_
*765 _0732_
*766 _0733_
*767 _0734_
*768 _0735_
*769 _0736_
*770 _0737_
*771 _0738_
*772 _0739_
*773 _0740_
*774 _0741_
*775 _0742_
*776 _0743_
*777 _0744_
*778 _0745_
*779 _0746_
*780 _0747_
*781 _0748_
*782 _0749_
*783 _0750_
*784 _0751_
*785 _0752_
*786 _0753_
*787 _0754_
*788 _0755_
*789 _0756_
*790 _0757_
*791 _0758_
*792 _0759_
*793 _0760_
*794 _0761_
*795 _0762_
*796 _0763_
*797 _0764_
*798 _0765_
*799 _0766_
*800 _0767_
*801 _0768_
*802 _0769_
*803 _0770_
*804 _0771_
*805 _0772_
*806 _0773_
*807 _0774_
*808 _0775_
*809 _0776_
*810 _0777_
*811 _0778_
*812 _0779_
*813 _0780_
*814 _0781_
*815 _0782_
*816 _0783_
*817 _0784_
*818 _0785_
*819 _0786_
*820 _0787_
*821 _0788_
*822 _0789_
*823 _0790_
*824 _0791_
*825 _0792_
*826 _0793_
*827 _0794_
*828 _0795_
*829 _0796_
*830 _0797_
*831 _0798_
*832 _0799_
*833 _0800_
*834 _0801_
*835 _0802_
*836 _0803_
*837 _0804_
*838 _0805_
*839 _0806_
*840 _0807_
*841 _0808_
*842 _0809_
*843 _0810_
*844 _0811_
*845 _0812_
*846 _0813_
*847 _0814_
*848 _0815_
*849 _0816_
*850 _0817_
*851 _0818_
*852 _0819_
*853 _0820_
*854 _0821_
*855 _0822_
*856 _0823_
*857 _0824_
*858 _0825_
*859 _0826_
*860 _0827_
*861 _0828_
*862 _0829_
*863 _0830_
*864 _0831_
*865 _0832_
*866 _0833_
*867 _0834_
*868 _0835_
*869 _0836_
*870 _0837_
*871 _0838_
*872 _0839_
*873 _0840_
*874 _0841_
*875 _0842_
*876 _0843_
*877 _0844_
*878 _0845_
*879 _0846_
*880 _0847_
*881 _0848_
*882 _0849_
*883 _0850_
*884 _0851_
*885 _0852_
*886 _0853_
*887 _0854_
*888 _0855_
*889 _0856_
*890 _0857_
*891 _0858_
*892 _0859_
*893 _0860_
*894 _0861_
*895 _0862_
*896 _0863_
*897 _0864_
*898 _0865_
*899 _0866_
*900 _0867_
*901 _0868_
*902 _0869_
*903 _0870_
*904 _0871_
*905 _0872_
*906 _0873_
*907 _0874_
*908 _0875_
*909 _0876_
*910 _0877_
*911 _0878_
*912 _0879_
*913 _0880_
*914 _0881_
*915 _0882_
*916 _0883_
*917 _0884_
*918 _0885_
*919 _0886_
*920 _0887_
*921 _0888_
*922 _0889_
*923 _0890_
*924 _0891_
*925 _0892_
*926 _0893_
*927 _0894_
*928 _0895_
*929 _0896_
*930 _0897_
*931 _0898_
*932 _0899_
*933 _0900_
*934 _0901_
*935 _0902_
*936 _0903_
*937 _0904_
*938 _0905_
*939 _0906_
*940 _0907_
*941 _0908_
*942 _0909_
*943 _0910_
*944 _0911_
*945 _0912_
*946 _0913_
*947 _0914_
*948 _0915_
*949 _0916_
*950 _0917_
*951 _0918_
*952 _0919_
*953 _0920_
*954 _0921_
*955 _0922_
*956 _0923_
*957 _0924_
*958 _0925_
*959 _0926_
*960 _0927_
*961 _0928_
*962 _0929_
*963 _0930_
*964 _0931_
*965 _0932_
*966 _0933_
*967 _0934_
*968 _0935_
*969 _0936_
*970 _0937_
*971 _0938_
*972 _0939_
*973 _0940_
*974 _0941_
*975 _0942_
*976 _0943_
*977 _0944_
*978 _0945_
*979 _0946_
*980 _0947_
*981 _0948_
*982 _0949_
*983 _0950_
*984 _0951_
*985 _0952_
*986 _0953_
*987 _0954_
*988 _0955_
*989 _0956_
*990 _0957_
*991 _0958_
*992 _0959_
*993 _0960_
*994 _0961_
*995 _0962_
*996 _0963_
*997 _0964_
*998 _0965_
*999 _0966_
*1000 _0967_
*1001 _0968_
*1002 _0969_
*1003 _0970_
*1004 _0971_
*1005 _0972_
*1006 _0973_
*1007 _0974_
*1008 _0975_
*1009 _0976_
*1010 _0977_
*1011 _0978_
*1012 _0979_
*1013 _0980_
*1014 _0981_
*1015 _0982_
*1016 _0983_
*1017 _0984_
*1018 _0985_
*1019 _0986_
*1020 _0987_
*1021 _0988_
*1022 _0989_
*1023 _0990_
*1024 _0991_
*1025 _0992_
*1026 _0993_
*1027 _0994_
*1028 _0995_
*1029 _0996_
*1030 _0997_
*1031 _0998_
*1032 _0999_
*1033 _1000_
*1034 _1001_
*1035 _1002_
*1036 _1003_
*1037 _1004_
*1038 _1005_
*1039 _1006_
*1040 _1007_
*1041 _1008_
*1042 _1009_
*1043 _1010_
*1044 _1011_
*1045 _1012_
*1046 _1013_
*1047 _1014_
*1048 _1015_
*1049 _1016_
*1050 _1017_
*1051 _1018_
*1052 _1019_
*1053 _1020_
*1054 _1021_
*1055 _1022_
*1056 _1023_
*1057 _1024_
*1058 _1025_
*1059 _1026_
*1060 _1027_
*1061 _1028_
*1062 _1029_
*1063 _1030_
*1064 _1031_
*1065 _1032_
*1066 _1033_
*1067 _1034_
*1068 _1035_
*1069 _1036_
*1070 _1037_
*1071 _1038_
*1072 _1039_
*1073 _1040_
*1074 _1041_
*1075 _1042_
*1076 _1043_
*1077 _1044_
*1078 _1045_
*1079 _1046_
*1080 _1047_
*1081 _1048_
*1082 _1049_
*1083 _1050_
*1084 _1051_
*1085 _1052_
*1086 _1053_
*1087 al
*1088 byte_controller.ack_in
*1089 byte_controller.ack_out
*1090 byte_controller.bit_controller.al
*1091 byte_controller.bit_controller.busy
*1092 byte_controller.bit_controller.cSCL\[0\]
*1093 byte_controller.bit_controller.cSCL\[1\]
*1094 byte_controller.bit_controller.cSDA\[0\]
*1095 byte_controller.bit_controller.cSDA\[1\]
*1096 byte_controller.bit_controller.c_state\[0\]
*1097 byte_controller.bit_controller.c_state\[10\]
*1098 byte_controller.bit_controller.c_state\[11\]
*1099 byte_controller.bit_controller.c_state\[12\]
*1100 byte_controller.bit_controller.c_state\[13\]
*1101 byte_controller.bit_controller.c_state\[14\]
*1102 byte_controller.bit_controller.c_state\[15\]
*1103 byte_controller.bit_controller.c_state\[16\]
*1104 byte_controller.bit_controller.c_state\[1\]
*1105 byte_controller.bit_controller.c_state\[2\]
*1106 byte_controller.bit_controller.c_state\[3\]
*1107 byte_controller.bit_controller.c_state\[4\]
*1108 byte_controller.bit_controller.c_state\[5\]
*1109 byte_controller.bit_controller.c_state\[6\]
*1110 byte_controller.bit_controller.c_state\[7\]
*1111 byte_controller.bit_controller.c_state\[8\]
*1112 byte_controller.bit_controller.c_state\[9\]
*1113 byte_controller.bit_controller.clk_cnt\[0\]
*1114 byte_controller.bit_controller.clk_cnt\[10\]
*1115 byte_controller.bit_controller.clk_cnt\[11\]
*1116 byte_controller.bit_controller.clk_cnt\[12\]
*1117 byte_controller.bit_controller.clk_cnt\[13\]
*1118 byte_controller.bit_controller.clk_cnt\[14\]
*1119 byte_controller.bit_controller.clk_cnt\[15\]
*1120 byte_controller.bit_controller.clk_cnt\[1\]
*1121 byte_controller.bit_controller.clk_cnt\[2\]
*1122 byte_controller.bit_controller.clk_cnt\[3\]
*1123 byte_controller.bit_controller.clk_cnt\[4\]
*1124 byte_controller.bit_controller.clk_cnt\[5\]
*1125 byte_controller.bit_controller.clk_cnt\[6\]
*1126 byte_controller.bit_controller.clk_cnt\[7\]
*1127 byte_controller.bit_controller.clk_cnt\[8\]
*1128 byte_controller.bit_controller.clk_cnt\[9\]
*1129 byte_controller.bit_controller.clk_en
*1130 byte_controller.bit_controller.cmd_ack
*1131 byte_controller.bit_controller.cmd_slave_ack
*1132 byte_controller.bit_controller.cmd_stop
*1133 byte_controller.bit_controller.cnt\[0\]
*1134 byte_controller.bit_controller.cnt\[10\]
*1135 byte_controller.bit_controller.cnt\[11\]
*1136 byte_controller.bit_controller.cnt\[12\]
*1137 byte_controller.bit_controller.cnt\[13\]
*1138 byte_controller.bit_controller.cnt\[14\]
*1139 byte_controller.bit_controller.cnt\[15\]
*1140 byte_controller.bit_controller.cnt\[1\]
*1141 byte_controller.bit_controller.cnt\[2\]
*1142 byte_controller.bit_controller.cnt\[3\]
*1143 byte_controller.bit_controller.cnt\[4\]
*1144 byte_controller.bit_controller.cnt\[5\]
*1145 byte_controller.bit_controller.cnt\[6\]
*1146 byte_controller.bit_controller.cnt\[7\]
*1147 byte_controller.bit_controller.cnt\[8\]
*1148 byte_controller.bit_controller.cnt\[9\]
*1149 byte_controller.bit_controller.dSCL
*1150 byte_controller.bit_controller.dSDA
*1151 byte_controller.bit_controller.din
*1152 byte_controller.bit_controller.dout
*1153 byte_controller.bit_controller.dscl_oen
*1154 byte_controller.bit_controller.ena
*1155 byte_controller.bit_controller.fSCL\[0\]
*1156 byte_controller.bit_controller.fSCL\[1\]
*1157 byte_controller.bit_controller.fSCL\[2\]
*1158 byte_controller.bit_controller.fSDA\[0\]
*1159 byte_controller.bit_controller.fSDA\[1\]
*1160 byte_controller.bit_controller.fSDA\[2\]
*1161 byte_controller.bit_controller.filter_cnt\[0\]
*1162 byte_controller.bit_controller.filter_cnt\[10\]
*1163 byte_controller.bit_controller.filter_cnt\[11\]
*1164 byte_controller.bit_controller.filter_cnt\[12\]
*1165 byte_controller.bit_controller.filter_cnt\[13\]
*1166 byte_controller.bit_controller.filter_cnt\[1\]
*1167 byte_controller.bit_controller.filter_cnt\[2\]
*1168 byte_controller.bit_controller.filter_cnt\[3\]
*1169 byte_controller.bit_controller.filter_cnt\[4\]
*1170 byte_controller.bit_controller.filter_cnt\[5\]
*1171 byte_controller.bit_controller.filter_cnt\[6\]
*1172 byte_controller.bit_controller.filter_cnt\[7\]
*1173 byte_controller.bit_controller.filter_cnt\[8\]
*1174 byte_controller.bit_controller.filter_cnt\[9\]
*1175 byte_controller.bit_controller.master_mode
*1176 byte_controller.bit_controller.sSCL
*1177 byte_controller.bit_controller.sSDA
*1178 byte_controller.bit_controller.scl_oen_master
*1179 byte_controller.bit_controller.scl_oen_slave
*1180 byte_controller.bit_controller.sda_chk
*1181 byte_controller.bit_controller.sda_oen_master
*1182 byte_controller.bit_controller.sda_oen_slave
*1183 byte_controller.bit_controller.sl_wait
*1184 byte_controller.bit_controller.slave_act
*1185 byte_controller.bit_controller.slave_adr\[0\]
*1186 byte_controller.bit_controller.slave_adr\[1\]
*1187 byte_controller.bit_controller.slave_adr\[2\]
*1188 byte_controller.bit_controller.slave_adr\[3\]
*1189 byte_controller.bit_controller.slave_adr\[4\]
*1190 byte_controller.bit_controller.slave_adr\[5\]
*1191 byte_controller.bit_controller.slave_adr\[6\]
*1192 byte_controller.bit_controller.slave_adr\[7\]
*1193 byte_controller.bit_controller.slave_adr_received
*1194 byte_controller.bit_controller.slave_cmd\[0\]
*1195 byte_controller.bit_controller.slave_cmd\[1\]
*1196 byte_controller.bit_controller.slave_cnt\[0\]
*1197 byte_controller.bit_controller.slave_cnt\[1\]
*1198 byte_controller.bit_controller.slave_cnt\[2\]
*1199 byte_controller.bit_controller.slave_cnt\[3\]
*1200 byte_controller.bit_controller.slave_state\[0\]
*1201 byte_controller.bit_controller.slave_state\[1\]
*1202 byte_controller.bit_controller.slave_state\[2\]
*1203 byte_controller.bit_controller.slave_state\[3\]
*1204 byte_controller.bit_controller.slave_state\[4\]
*1205 byte_controller.bit_controller.slave_state\[5\]
*1206 byte_controller.bit_controller.slave_state\[6\]
*1207 byte_controller.bit_controller.slave_wait
*1208 byte_controller.bit_controller.sta_condition
*1209 byte_controller.bit_controller.sto_condition
*1210 byte_controller.c_state\[0\]
*1211 byte_controller.c_state\[10\]
*1212 byte_controller.c_state\[1\]
*1213 byte_controller.c_state\[2\]
*1214 byte_controller.c_state\[3\]
*1215 byte_controller.c_state\[4\]
*1216 byte_controller.c_state\[5\]
*1217 byte_controller.c_state\[6\]
*1218 byte_controller.c_state\[7\]
*1219 byte_controller.c_state\[8\]
*1220 byte_controller.c_state\[9\]
*1221 byte_controller.cmd_ack
*1222 byte_controller.core_cmd\[1\]
*1223 byte_controller.core_cmd\[2\]
*1224 byte_controller.core_cmd\[3\]
*1225 byte_controller.core_cmd\[4\]
*1226 byte_controller.dcnt\[0\]
*1227 byte_controller.dcnt\[1\]
*1228 byte_controller.dcnt\[2\]
*1229 byte_controller.din\[0\]
*1230 byte_controller.din\[1\]
*1231 byte_controller.din\[2\]
*1232 byte_controller.din\[3\]
*1233 byte_controller.din\[4\]
*1234 byte_controller.din\[5\]
*1235 byte_controller.din\[6\]
*1236 byte_controller.din\[7\]
*1237 byte_controller.dout\[0\]
*1238 byte_controller.dout\[1\]
*1239 byte_controller.dout\[2\]
*1240 byte_controller.dout\[3\]
*1241 byte_controller.dout\[4\]
*1242 byte_controller.dout\[5\]
*1243 byte_controller.dout\[6\]
*1244 byte_controller.dout\[7\]
*1245 byte_controller.ld
*1246 byte_controller.my_addr\[0\]
*1247 byte_controller.my_addr\[1\]
*1248 byte_controller.my_addr\[2\]
*1249 byte_controller.my_addr\[3\]
*1250 byte_controller.my_addr\[4\]
*1251 byte_controller.my_addr\[5\]
*1252 byte_controller.my_addr\[6\]
*1253 byte_controller.read
*1254 byte_controller.shift
*1255 byte_controller.sl_cont
*1256 byte_controller.slave_act
*1257 byte_controller.slave_adr_received_d
*1258 byte_controller.slave_cmd\[0\]
*1259 byte_controller.slave_cmd\[1\]
*1260 byte_controller.slave_cmd_ack
*1261 byte_controller.slave_dat_avail
*1262 byte_controller.slave_dat_req
*1263 byte_controller.slave_en
*1264 byte_controller.start
*1265 byte_controller.stop
*1266 byte_controller.write
*1267 cr\[0\]
*1268 cr\[2\]
*1269 ctr\[0\]
*1270 ctr\[1\]
*1271 ctr\[2\]
*1272 ctr\[3\]
*1273 ctr\[4\]
*1274 ctr\[6\]
*1275 irq_flag
*1276 rxack
*1277 slave_mode
*1278 tip
*1279 net1
*1280 net2
*1281 net3
*1282 net4
*1283 net5
*1284 net6
*1285 net7
*1286 net8
*1287 net9
*1288 net10
*1289 net11
*1290 net12
*1291 net13
*1292 net14
*1293 net15
*1294 net16
*1295 net17
*1296 net18
*1297 net19
*1298 net20
*1299 net21
*1300 net22
*1301 net23
*1302 net24
*1303 net25
*1304 net26
*1305 net27
*1306 net28
*1307 net29
*1308 net30
*1309 net31
*1310 net32
*1311 clknet_leaf_0_wb_clk_i
*1312 clknet_leaf_1_wb_clk_i
*1313 clknet_leaf_2_wb_clk_i
*1314 clknet_leaf_3_wb_clk_i
*1315 clknet_leaf_4_wb_clk_i
*1316 clknet_leaf_5_wb_clk_i
*1317 clknet_leaf_6_wb_clk_i
*1318 clknet_leaf_7_wb_clk_i
*1319 clknet_leaf_8_wb_clk_i
*1320 clknet_leaf_9_wb_clk_i
*1321 clknet_leaf_10_wb_clk_i
*1322 clknet_leaf_11_wb_clk_i
*1323 clknet_leaf_12_wb_clk_i
*1324 clknet_leaf_13_wb_clk_i
*1325 clknet_leaf_14_wb_clk_i
*1326 clknet_leaf_15_wb_clk_i
*1327 clknet_leaf_16_wb_clk_i
*1328 clknet_leaf_17_wb_clk_i
*1329 clknet_leaf_18_wb_clk_i
*1330 clknet_leaf_19_wb_clk_i
*1331 clknet_leaf_20_wb_clk_i
*1332 clknet_leaf_21_wb_clk_i
*1333 clknet_leaf_22_wb_clk_i
*1334 clknet_leaf_23_wb_clk_i
*1335 clknet_leaf_24_wb_clk_i
*1336 clknet_leaf_25_wb_clk_i
*1337 clknet_0_wb_clk_i
*1338 clknet_1_0__leaf_wb_clk_i
*1339 clknet_1_1__leaf_wb_clk_i

*D_NET *0 0.00351924475194
*CONN
*P arst_i I
*I input1:A I
*CAP
0 *0:1 0.00081829101114
1 *0:3 0.001844691504
2 *0:5 8.932229792e-05
3 *0:6 4.017137184e-05
4 *0:7 0.00016847543872000001
5 *0:9 0.0005582931283199999
6 *0:10 0
7 input1:A 0
*RES
0 *0:1 *0:2 9.25892857142857
1 *0:3 *0:4 0.30357142857142855
2 *0:5 *0:4 0.8214285714285714
3 *0:6 *0:5 0.30357142857142855
4 *0:7 *0:6 1.232142857142857
5 *0:7 *0:8 0.30357142857142855
6 *0:9 *0:8 5.339285714285714
7 *0:9 input1:A 0.30357142857142855
8 *0:3 *0:10 18.892857142857142
9 *0:10 *0:2 0
10 input1:A input1:A 0
*END

*D_NET *1 0.0015652250985
*CONN
*P scl_pad_i I
*I input2:A I
*CAP
8 *1:1 0.00032321291168
9 *1:2 0.00124201218682
10 input2:A 0
*RES
11 *1:1 input2:A 3.2857142857142856
12 *1:2 *1:3 14.116071428571427
13 input2:A input2:A 0
14 *1:1 *1:2 0
*END

*D_NET *2 0.0015292116945800002
*CONN
*P scl_pad_o O
*I output19:X O
*CAP
11 output19:X 0.00012830406688
12 *2:2 0.0014009076277000003
13 *2:1 0
*RES
15 output19:X *2:1 1.232142857142857
16 *2:2 *2:3 15.9375
17 output19:X output19:X 0
18 *2:1 *2:2 0
*END

*D_NET *3 0.0044902432071
*CONN
*P scl_padoen_o O
*I output20:X O
*CAP
14 output20:X 0.00063506706336
15 *3:2 0.0012287709000800002
16 *3:4 0.00231128312864
17 *3:6 0.00031512211502
18 *3:1 0
19 *3:5 0
*RES
19 output20:X *3:1 6.571428571428571
20 *3:2 *3:3 13.964285714285714
21 *3:4 *3:5 24.232142857142854
22 *3:6 *3:7 3.4910714285714284
23 output20:X output20:X 0
24 *3:1 *3:2 0
25 *3:4 *3:3 0
26 *3:5 *3:6 0
*END

*D_NET *4 0.005692586659520001
*CONN
*P sda_pad_i I
*I input3:A I
*CAP
20 *4:1 7.67789537e-05
21 *4:3 0.00067404883232
22 *4:5 0.00238076284646
23 *4:7 4.640188412000001e-05
24 *4:8 0.0009507038785400001
25 *4:9 0.00012830406688
26 *4:11 4.017137184e-05
27 input3:A 5.034052896000001e-05
28 *4:12 0.0013450742967
29 *4:2 0
30 *4:4 0
31 *4:10 0
*RES
27 *4:1 *4:2 0.7589285714285713
28 *4:3 *4:4 6.982142857142857
29 *4:5 *4:6 27.169642857142854
30 *4:7 *4:5 0.4107142857142857
31 *4:8 *4:7 10.776785714285714
32 *4:9 *4:10 1.232142857142857
33 *4:11 *4:9 0.30357142857142855
34 input3:A *4:11 0.4107142857142857
35 *4:12 *4:13 2.4142333333333332
36 *4:2 *4:12 0
37 *4:4 *4:1 0
38 *4:3 *4:6 0
39 *4:10 *4:8 0
40 input3:A input3:A 0
*END

*D_NET *5 0.004410275253120001
*CONN
*P sda_pad_o O
*I output21:X O
*CAP
32 *5:1 0.0029368968895400003
33 output21:X 0.00012830406688
34 *5:4 0.0013450742967
35 *5:3 0
*RES
41 *5:1 *5:2 33.544642857142854
42 output21:X *5:3 1.232142857142857
43 *5:4 *5:5 2.4142333333333332
44 *5:1 *5:4 0
45 *5:3 *5:2 0
46 output21:X output21:X 0
*END

*D_NET *6 0.0011246013471800003
*CONN
*P sda_padoen_o O
*I output22:X O
*CAP
36 *6:1 0.00063291299678
37 *6:3 0.00032321291168
38 *6:5 4.017137184e-05
39 output22:X 0.00012830406688
40 *6:4 0
*RES
47 *6:1 *6:2 7.133928571428571
48 *6:3 *6:4 3.2857142857142856
49 *6:5 *6:3 0.30357142857142855
50 output22:X *6:5 1.232142857142857
51 output22:X output22:X 0
52 *6:4 *6:2 0
*END

*D_NET *7 0.00085167979706
*CONN
*P wb_ack_o O
*I output23:X O
*CAP
41 *7:1 0.0006064304233
42 *7:3 0.00024524937376
43 output23:X 0
*RES
53 *7:1 *7:2 6.830357142857142
54 *7:3 output23:X 2.464285714285714
55 *7:3 *7:2 0
56 output23:X output23:X 0
*END

*D_NET *8 0.0008421489666200001
*CONN
*P wb_adr_i[0] I
*I input4:A I
*CAP
44 *8:1 5.034052896000001e-05
45 *8:2 0.0007918084376600001
46 input4:A 0
*RES
57 *8:1 input4:A 0.4107142857142857
58 *8:2 *8:3 8.95535714285714
59 input4:A input4:A 0
60 *8:1 *8:2 0
*END

*D_NET *9 0.0008421489666200001
*CONN
*P wb_adr_i[1] I
*I input5:A I
*CAP
47 *9:1 5.034052896000001e-05
48 *9:2 0.0007918084376600001
49 input5:A 0
*RES
61 *9:1 input5:A 0.4107142857142857
62 *9:2 *9:3 8.95535714285714
63 input5:A input5:A 0
64 *9:1 *9:2 0
*END

*D_NET *10 0.00060702387292
*CONN
*P wb_adr_i[2] I
*I input6:A I
*CAP
50 *10:1 5.029638022e-05
51 *10:3 0.0005567274927
52 input6:A 0
53 *10:2 0
*RES
65 *10:1 *10:2 0.45535714285714285
66 *10:3 *10:4 0.9729000000000001
67 input6:A input6:A 0
68 input6:A *10:1 0
69 *10:2 *10:4 0
*END

*D_NET *11 0.0133776676947
*CONN
*P wb_clk_i I
*I clkbuf_0_wb_clk_i:A I
*CAP
54 *11:1 0.00024524937376
55 *11:3 0.0013214599072599999
56 *11:5 0.0014663956579200003
57 *11:7 0.0015980894438400001
58 *11:8 4.017137184e-05
59 *11:10 0.005148191775119999
60 *11:12 0.00079218374208
61 *11:15 0.00011650281392
62 *11:17 0.00067404883232
63 *11:18 6.898398368e-05
64 *11:19 0.0007909941392
65 *11:20 4.017137184e-05
66 *11:21 0.00024524937376
67 *11:9 0.00082997590816
68 *11:2 0
69 *11:14 0
70 clkbuf_0_wb_clk_i:A 0
*RES
70 *11:1 *11:2 2.464285714285714
71 *11:3 *11:4 15.026785714285712
72 *11:5 *11:6 15.330357142857142
73 *11:7 *11:6 0.30357142857142855
74 *11:7 *11:8 16.294642857142854
75 *11:8 *11:9 0.30357142857142855
76 *11:10 *11:11 58.89285714285713
77 *11:12 *11:13 0.30357142857142855
78 *11:12 *11:14 7.803571428571428
79 *11:15 *11:16 1.2142857142857142
80 *11:17 *11:18 6.982142857142857
81 *11:18 *11:19 0.6071428571428571
82 *11:19 *11:20 8.214285714285714
83 *11:20 *11:21 0.30357142857142855
84 *11:21 clkbuf_0_wb_clk_i:A 2.464285714285714
85 *11:9 *11:13 8.625
86 *11:1 *11:4 0
87 *11:2 *11:10 0
88 *11:5 *11:11 0
89 *11:14 *11:15 0
90 *11:17 *11:16 0
91 clkbuf_0_wb_clk_i:A clkbuf_0_wb_clk_i:A 0
*END

*D_NET *12 0.00060702387292
*CONN
*P wb_cyc_i I
*I input7:A I
*CAP
71 *12:1 0.0005567274927
72 *12:3 5.029638022e-05
73 input7:A 0
*RES
92 *12:1 *12:2 0.9729000000000001
93 *12:3 *12:4 0.45535714285714285
94 *12:3 *12:2 0
95 input7:A input7:A 0
96 input7:A *12:4 0
*END

*D_NET *13 0.00121946746074
*CONN
*P wb_dat_i[0] I
*I input8:A I
*CAP
74 *13:1 0.00040117644959999997
75 *13:2 0.00081829101114
76 input8:A 0
*RES
97 *13:1 input8:A 4.107142857142857
98 *13:2 *13:3 9.25892857142857
99 input8:A input8:A 0
100 *13:1 *13:2 0
*END

*D_NET *14 0.0009311275175000002
*CONN
*P wb_dat_i[1] I
*I input9:A I
*CAP
77 *14:1 0.0006858781437400002
78 *14:3 0.00024524937376
79 input9:A 0
*RES
101 *14:1 *14:2 7.741071428571428
102 *14:3 input9:A 2.464285714285714
103 *14:3 *14:2 0
104 input9:A input9:A 0
*END

*D_NET *15 0.0011025221538600001
*CONN
*P wb_dat_i[2] I
*I input10:A I
*CAP
80 *15:1 0.00028423114272
81 *15:2 0.00081829101114
82 input10:A 0
*RES
105 *15:1 input10:A 2.875
106 *15:2 *15:3 9.25892857142857
107 input10:A input10:A 0
108 *15:1 *15:2 0
*END

*D_NET *16 0.00073882370028
*CONN
*P wb_dat_i[3] I
*I input11:A I
*CAP
83 *16:1 0.00010326152718000001
84 *16:3 0.0006355621730999999
85 input11:A 0
*RES
109 *16:1 *16:2 1.0624999999999998
110 *16:3 *16:4 1.1170333333333335
111 *16:1 *16:3 0
112 input11:A input11:A 0
113 input11:A *16:2 0
*END

*D_NET *17 0.0008951141135800001
*CONN
*P wb_dat_i[4] I
*I input12:A I
*CAP
86 *17:1 5.034052896000001e-05
87 *17:2 0.0008447735846200001
88 input12:A 0
*RES
114 *17:1 input12:A 0.4107142857142857
115 *17:2 *17:3 9.5625
116 *17:1 *17:3 0
117 input12:A input12:A 0
*END

*D_NET *18 0.00077824104048
*CONN
*P wb_dat_i[5] I
*I input13:A I
*CAP
89 *18:1 0.00010326152718000001
90 *18:3 0.0006749795133
91 *18:2 0
92 input13:A 0
*RES
118 *18:1 *18:2 1.0624999999999998
119 *18:3 *18:4 1.1891
120 *18:2 *18:3 0
121 input13:A input13:A 0
122 input13:A *18:1 0
*END

*D_NET *19 0.00081829101114
*CONN
*P wb_dat_i[6] I
*I input14:A I
*CAP
93 *19:1 0.00081829101114