* NGSPICE file created from i2c_master_top.ext - technology: sky130A

* Black-box entry subcircuit for sky130_fd_sc_hd__decap_4 abstract view
.subckt sky130_fd_sc_hd__decap_4 VGND VNB VPB VPWR
.ends

* Black-box entry subcircuit for sky130_fd_sc_hd__inv_2 abstract view
.subckt sky130_fd_sc_hd__inv_2 A VGND VNB VPB VPWR Y
.ends

* Black-box entry subcircuit for sky130_fd_sc_hd__mux2_1 abstract view
.subckt sky130_fd_sc_hd__mux2_1 A0 A1 S VGND VNB VPB VPWR X
.ends

* Black-box entry subcircuit for sky130_fd_sc_hd__fill_1 abstract view
.subckt sky130_fd_sc_hd__fill_1 VGND VNB VPB VPWR
.ends

* Black-box entry subcircuit for sky130_fd_sc_hd__decap_6 abstract view
.subckt sky130_fd_sc_hd__decap_6 VGND VNB VPB VPWR
.ends

* Black-box entry subcircuit for sky130_fd_sc_hd__clkbuf_2 abstract view
.subckt sky130_fd_sc_hd__clkbuf_2 A VGND VNB VPB VPWR X
.ends

* Black-box entry subcircuit for sky130_fd_sc_hd__decap_8 abstract view
.subckt sky130_fd_sc_hd__decap_8 VGND VNB VPB VPWR
.ends

* Black-box entry subcircuit for sky130_fd_sc_hd__clkbuf_1 abstract view
.subckt sky130_fd_sc_hd__clkbuf_1 A VGND VNB VPB VPWR X
.ends

* Black-box entry subcircuit for sky130_fd_sc_hd__or4_4 abstract view
.subckt sky130_fd_sc_hd__or4_4 A B C D VGND VNB VPB VPWR X
.ends

* Black-box entry subcircuit for sky130_fd_sc_hd__buf_2 abstract view
.subckt sky130_fd_sc_hd__buf_2 A VGND VNB VPB VPWR X
.ends

* Black-box entry subcircuit for sky130_fd_sc_hd__fill_2 abstract view
.subckt sky130_fd_sc_hd__fill_2 VGND VNB VPB VPWR
.ends

* Black-box entry subcircuit for sky130_fd_sc_hd__a21bo_1 abstract view
.subckt sky130_fd_sc_hd__a21bo_1 A1 A2 B1_N VGND VNB VPB VPWR X
.ends

* Black-box entry subcircuit for sky130_fd_sc_hd__or2_1 abstract view
.subckt sky130_fd_sc_hd__or2_1 A B VGND VNB VPB VPWR X
.ends

* Black-box entry subcircuit for sky130_fd_sc_hd__dfrtp_1 abstract view
.subckt sky130_fd_sc_hd__dfrtp_1 CLK D RESET_B VGND VNB VPB VPWR Q
.ends

* Black-box entry subcircuit for sky130_fd_sc_hd__buf_1 abstract view
.subckt sky130_fd_sc_hd__buf_1 A VGND VNB VPB VPWR X
.ends

* Black-box entry subcircuit for sky130_fd_sc_hd__a21boi_1 abstract view
.subckt sky130_fd_sc_hd__a21boi_1 A1 A2 B1_N VGND VNB VPB VPWR Y
.ends

* Black-box entry subcircuit for sky130_fd_sc_hd__a22o_1 abstract view
.subckt sky130_fd_sc_hd__a22o_1 A1 A2 B1 B2 VGND VNB VPB VPWR X
.ends

* Black-box entry subcircuit for sky130_fd_sc_hd__dfstp_1 abstract view
.subckt sky130_fd_sc_hd__dfstp_1 CLK D SET_B VGND VNB VPB VPWR Q
.ends

* Black-box entry subcircuit for sky130_fd_sc_hd__tapvpwrvgnd_1 abstract view
.subckt sky130_fd_sc_hd__tapvpwrvgnd_1 VGND VPWR
.ends

* Black-box entry subcircuit for sky130_fd_sc_hd__clkbuf_16 abstract view
.subckt sky130_fd_sc_hd__clkbuf_16 A VGND VNB VPB VPWR X
.ends

* Black-box entry subcircuit for sky130_fd_sc_hd__diode_2 abstract view
.subckt sky130_fd_sc_hd__diode_2 DIODE VGND VNB VPB VPWR
.ends

* Black-box entry subcircuit for sky130_fd_sc_hd__mux2_2 abstract view
.subckt sky130_fd_sc_hd__mux2_2 A0 A1 S VGND VNB VPB VPWR X
.ends

* Black-box entry subcircuit for sky130_fd_sc_hd__dfxtp_1 abstract view
.subckt sky130_fd_sc_hd__dfxtp_1 CLK D VGND VNB VPB VPWR Q
.ends

* Black-box entry subcircuit for sky130_fd_sc_hd__nor2_1 abstract view
.subckt sky130_fd_sc_hd__nor2_1 A B VGND VNB VPB VPWR Y
.ends

* Black-box entry subcircuit for sky130_fd_sc_hd__or3_1 abstract view
.subckt sky130_fd_sc_hd__or3_1 A B C VGND VNB VPB VPWR X
.ends

* Black-box entry subcircuit for sky130_fd_sc_hd__decap_12 abstract view
.subckt sky130_fd_sc_hd__decap_12 VGND VNB VPB VPWR
.ends

* Black-box entry subcircuit for sky130_fd_sc_hd__a32o_1 abstract view
.subckt sky130_fd_sc_hd__a32o_1 A1 A2 A3 B1 B2 VGND VNB VPB VPWR X
.ends

* Black-box entry subcircuit for sky130_fd_sc_hd__o22ai_1 abstract view
.subckt sky130_fd_sc_hd__o22ai_1 A1 A2 B1 B2 VGND VNB VPB VPWR Y
.ends

* Black-box entry subcircuit for sky130_fd_sc_hd__or3b_1 abstract view
.subckt sky130_fd_sc_hd__or3b_1 A B C_N VGND VNB VPB VPWR X
.ends

* Black-box entry subcircuit for sky130_fd_sc_hd__a31o_1 abstract view
.subckt sky130_fd_sc_hd__a31o_1 A1 A2 A3 B1 VGND VNB VPB VPWR X
.ends

* Black-box entry subcircuit for sky130_fd_sc_hd__and3_1 abstract view
.subckt sky130_fd_sc_hd__and3_1 A B C VGND VNB VPB VPWR X
.ends

* Black-box entry subcircuit for sky130_fd_sc_hd__o32a_1 abstract view
.subckt sky130_fd_sc_hd__o32a_1 A1 A2 A3 B1 B2 VGND VNB VPB VPWR X
.ends

* Black-box entry subcircuit for sky130_fd_sc_hd__or2_2 abstract view
.subckt sky130_fd_sc_hd__or2_2 A B VGND VNB VPB VPWR X
.ends

* Black-box entry subcircuit for sky130_fd_sc_hd__o21ai_1 abstract view
.subckt sky130_fd_sc_hd__o21ai_1 A1 A2 B1 VGND VNB VPB VPWR Y
.ends

* Black-box entry subcircuit for sky130_fd_sc_hd__dfrtp_4 abstract view
.subckt sky130_fd_sc_hd__dfrtp_4 CLK D RESET_B VGND VNB VPB VPWR Q
.ends

* Black-box entry subcircuit for sky130_fd_sc_hd__and2_1 abstract view
.subckt sky130_fd_sc_hd__and2_1 A B VGND VNB VPB VPWR X
.ends

* Black-box entry subcircuit for sky130_fd_sc_hd__o22a_1 abstract view
.subckt sky130_fd_sc_hd__o22a_1 A1 A2 B1 B2 VGND VNB VPB VPWR X
.ends

* Black-box entry subcircuit for sky130_fd_sc_hd__a21oi_1 abstract view
.subckt sky130_fd_sc_hd__a21oi_1 A1 A2 B1 VGND VNB VPB VPWR Y
.ends

* Black-box entry subcircuit for sky130_fd_sc_hd__o21ai_2 abstract view
.subckt sky130_fd_sc_hd__o21ai_2 A1 A2 B1 VGND VNB VPB VPWR Y
.ends

* Black-box entry subcircuit for sky130_fd_sc_hd__decap_3 abstract view
.subckt sky130_fd_sc_hd__decap_3 VGND VNB VPB VPWR
.ends

* Black-box entry subcircuit for sky130_fd_sc_hd__dfxtp_2 abstract view
.subckt sky130_fd_sc_hd__dfxtp_2 CLK D VGND VNB VPB VPWR Q
.ends

* Black-box entry subcircuit for sky130_fd_sc_hd__mux2_4 abstract view
.subckt sky130_fd_sc_hd__mux2_4 A0 A1 S VGND VNB VPB VPWR X
.ends

* Black-box entry subcircuit for sky130_fd_sc_hd__and3b_1 abstract view
.subckt sky130_fd_sc_hd__and3b_1 A_N B C VGND VNB VPB VPWR X
.ends

* Black-box entry subcircuit for sky130_fd_sc_hd__o2111ai_2 abstract view
.subckt sky130_fd_sc_hd__o2111ai_2 A1 A2 B1 C1 D1 VGND VNB VPB VPWR Y
.ends

* Black-box entry subcircuit for sky130_fd_sc_hd__or3b_4 abstract view
.subckt sky130_fd_sc_hd__or3b_4 A B C_N VGND VNB VPB VPWR X
.ends

* Black-box entry subcircuit for sky130_fd_sc_hd__o221a_1 abstract view
.subckt sky130_fd_sc_hd__o221a_1 A1 A2 B1 B2 C1 VGND VNB VPB VPWR X
.ends

* Black-box entry subcircuit for sky130_fd_sc_hd__nand2_1 abstract view
.subckt sky130_fd_sc_hd__nand2_1 A B VGND VNB VPB VPWR Y
.ends

* Black-box entry subcircuit for sky130_fd_sc_hd__nor2b_1 abstract view
.subckt sky130_fd_sc_hd__nor2b_1 A B_N VGND VNB VPB VPWR Y
.ends

* Black-box entry subcircuit for sky130_fd_sc_hd__nor2_2 abstract view
.subckt sky130_fd_sc_hd__nor2_2 A B VGND VNB VPB VPWR Y
.ends

* Black-box entry subcircuit for sky130_fd_sc_hd__conb_1 abstract view
.subckt sky130_fd_sc_hd__conb_1 VGND VNB VPB VPWR HI LO
.ends

* Black-box entry subcircuit for sky130_fd_sc_hd__or3_4 abstract view
.subckt sky130_fd_sc_hd__or3_4 A B C VGND VNB VPB VPWR X
.ends

* Black-box entry subcircuit for sky130_fd_sc_hd__o221ai_2 abstract view
.subckt sky130_fd_sc_hd__o221ai_2 A1 A2 B1 B2 C1 VGND VNB VPB VPWR Y
.ends

* Black-box entry subcircuit for sky130_fd_sc_hd__nand4_2 abstract view
.subckt sky130_fd_sc_hd__nand4_2 A B C D VGND VNB VPB VPWR Y
.ends

* Black-box entry subcircuit for sky130_fd_sc_hd__or2_4 abstract view
.subckt sky130_fd_sc_hd__or2_4 A B VGND VNB VPB VPWR X
.ends

* Black-box entry subcircuit for sky130_fd_sc_hd__or4b_4 abstract view
.subckt sky130_fd_sc_hd__or4b_4 A B C D_N VGND VNB VPB VPWR X
.ends

* Black-box entry subcircuit for sky130_fd_sc_hd__a311o_4 abstract view
.subckt sky130_fd_sc_hd__a311o_4 A1 A2 A3 B1 C1 VGND VNB VPB VPWR X
.ends

* Black-box entry subcircuit for sky130_fd_sc_hd__dlymetal6s2s_1 abstract view
.subckt sky130_fd_sc_hd__dlymetal6s2s_1 A VGND VNB VPB VPWR X
.ends

* Black-box entry subcircuit for sky130_fd_sc_hd__nand2_2 abstract view
.subckt sky130_fd_sc_hd__nand2_2 A B VGND VNB VPB VPWR Y
.ends

* Black-box entry subcircuit for sky130_fd_sc_hd__o21a_1 abstract view
.subckt sky130_fd_sc_hd__o21a_1 A1 A2 B1 VGND VNB VPB VPWR X
.ends

* Black-box entry subcircuit for sky130_fd_sc_hd__dfrtp_2 abstract view
.subckt sky130_fd_sc_hd__dfrtp_2 CLK D RESET_B VGND VNB VPB VPWR Q
.ends

* Black-box entry subcircuit for sky130_fd_sc_hd__a2bb2o_1 abstract view
.subckt sky130_fd_sc_hd__a2bb2o_1 A1_N A2_N B1 B2 VGND VNB VPB VPWR X
.ends

* Black-box entry subcircuit for sky130_fd_sc_hd__or3b_2 abstract view
.subckt sky130_fd_sc_hd__or3b_2 A B C_N VGND VNB VPB VPWR X
.ends

* Black-box entry subcircuit for sky130_fd_sc_hd__clkbuf_4 abstract view
.subckt sky130_fd_sc_hd__clkbuf_4 A VGND VNB VPB VPWR X
.ends

* Black-box entry subcircuit for sky130_fd_sc_hd__o2111ai_4 abstract view
.subckt sky130_fd_sc_hd__o2111ai_4 A1 A2 B1 C1 D1 VGND VNB VPB VPWR Y
.ends

* Black-box entry subcircuit for sky130_fd_sc_hd__a211o_1 abstract view
.subckt sky130_fd_sc_hd__a211o_1 A1 A2 B1 C1 VGND VNB VPB VPWR X
.ends

* Black-box entry subcircuit for sky130_fd_sc_hd__a221o_1 abstract view
.subckt sky130_fd_sc_hd__a221o_1 A1 A2 B1 B2 C1 VGND VNB VPB VPWR X
.ends

* Black-box entry subcircuit for sky130_fd_sc_hd__o2111a_1 abstract view
.subckt sky130_fd_sc_hd__o2111a_1 A1 A2 B1 C1 D1 VGND VNB VPB VPWR X
.ends

* Black-box entry subcircuit for sky130_fd_sc_hd__nor2_4 abstract view
.subckt sky130_fd_sc_hd__nor2_4 A B VGND VNB VPB VPWR Y
.ends

* Black-box entry subcircuit for sky130_fd_sc_hd__o211a_1 abstract view
.subckt sky130_fd_sc_hd__o211a_1 A1 A2 B1 C1 VGND VNB VPB VPWR X
.ends

* Black-box entry subcircuit for sky130_fd_sc_hd__buf_6 abstract view
.subckt sky130_fd_sc_hd__buf_6 A VGND VNB VPB VPWR X
.ends

* Black-box entry subcircuit for sky130_fd_sc_hd__and4b_2 abstract view
.subckt sky130_fd_sc_hd__and4b_2 A_N B C D VGND VNB VPB VPWR X
.ends

* Black-box entry subcircuit for sky130_fd_sc_hd__a21o_1 abstract view
.subckt sky130_fd_sc_hd__a21o_1 A1 A2 B1 VGND VNB VPB VPWR X
.ends

* Black-box entry subcircuit for sky130_fd_sc_hd__and4_1 abstract view
.subckt sky130_fd_sc_hd__and4_1 A B C D VGND VNB VPB VPWR X
.ends

* Black-box entry subcircuit for sky130_fd_sc_hd__a311o_1 abstract view
.subckt sky130_fd_sc_hd__a311o_1 A1 A2 A3 B1 C1 VGND VNB VPB VPWR X
.ends

* Black-box entry subcircuit for sky130_fd_sc_hd__and4b_1 abstract view
.subckt sky130_fd_sc_hd__and4b_1 A_N B C D VGND VNB VPB VPWR X
.ends

* Black-box entry subcircuit for sky130_fd_sc_hd__o31a_1 abstract view
.subckt sky130_fd_sc_hd__o31a_1 A1 A2 A3 B1 VGND VNB VPB VPWR X
.ends

* Black-box entry subcircuit for sky130_fd_sc_hd__a2bb2oi_1 abstract view
.subckt sky130_fd_sc_hd__a2bb2oi_1 A1_N A2_N B1 B2 VGND VNB VPB VPWR Y
.ends

* Black-box entry subcircuit for sky130_fd_sc_hd__a41o_1 abstract view
.subckt sky130_fd_sc_hd__a41o_1 A1 A2 A3 A4 B1 VGND VNB VPB VPWR X
.ends

* Black-box entry subcircuit for sky130_fd_sc_hd__o31ai_1 abstract view
.subckt sky130_fd_sc_hd__o31ai_1 A1 A2 A3 B1 VGND VNB VPB VPWR Y
.ends

* Black-box entry subcircuit for sky130_fd_sc_hd__o32a_2 abstract view
.subckt sky130_fd_sc_hd__o32a_2 A1 A2 A3 B1 B2 VGND VNB VPB VPWR X
.ends

* Black-box entry subcircuit for sky130_fd_sc_hd__a21oi_4 abstract view
.subckt sky130_fd_sc_hd__a21oi_4 A1 A2 B1 VGND VNB VPB VPWR Y
.ends

* Black-box entry subcircuit for sky130_fd_sc_hd__o2111ai_1 abstract view
.subckt sky130_fd_sc_hd__o2111ai_1 A1 A2 B1 C1 D1 VGND VNB VPB VPWR Y
.ends

* Black-box entry subcircuit for sky130_fd_sc_hd__o2bb2ai_1 abstract view
.subckt sky130_fd_sc_hd__o2bb2ai_1 A1_N A2_N B1 B2 VGND VNB VPB VPWR Y
.ends

* Black-box entry subcircuit for sky130_fd_sc_hd__o211ai_1 abstract view
.subckt sky130_fd_sc_hd__o211ai_1 A1 A2 B1 C1 VGND VNB VPB VPWR Y
.ends

* Black-box entry subcircuit for sky130_fd_sc_hd__o311a_1 abstract view
.subckt sky130_fd_sc_hd__o311a_1 A1 A2 A3 B1 C1 VGND VNB VPB VPWR X
.ends

* Black-box entry subcircuit for sky130_fd_sc_hd__or3_2 abstract view
.subckt sky130_fd_sc_hd__or3_2 A B C VGND VNB VPB VPWR X
.ends

* Black-box entry subcircuit for sky130_fd_sc_hd__nor3b_4 abstract view
.subckt sky130_fd_sc_hd__nor3b_4 A B C_N VGND VNB VPB VPWR Y
.ends

* Black-box entry subcircuit for sky130_fd_sc_hd__and4bb_1 abstract view
.subckt sky130_fd_sc_hd__and4bb_1 A_N B_N C D VGND VNB VPB VPWR X
.ends

* Black-box entry subcircuit for sky130_fd_sc_hd__o2bb2a_1 abstract view
.subckt sky130_fd_sc_hd__o2bb2a_1 A1_N A2_N B1 B2 VGND VNB VPB VPWR X
.ends

* Black-box entry subcircuit for sky130_fd_sc_hd__a221oi_2 abstract view
.subckt sky130_fd_sc_hd__a221oi_2 A1 A2 B1 B2 C1 VGND VNB VPB VPWR Y
.ends

* Black-box entry subcircuit for sky130_fd_sc_hd__o21ai_4 abstract view
.subckt sky130_fd_sc_hd__o21ai_4 A1 A2 B1 VGND VNB VPB VPWR Y
.ends

* Black-box entry subcircuit for sky130_fd_sc_hd__a31oi_1 abstract view
.subckt sky130_fd_sc_hd__a31oi_1 A1 A2 A3 B1 VGND VNB VPB VPWR Y
.ends

* Black-box entry subcircuit for sky130_fd_sc_hd__and2_2 abstract view
.subckt sky130_fd_sc_hd__and2_2 A B VGND VNB VPB VPWR X
.ends

.subckt i2c_master_top arst_i scl_pad_i scl_pad_o scl_padoen_o sda_pad_i sda_pad_o
+ sda_padoen_o wb_ack_o wb_adr_i[0] wb_adr_i[1] wb_adr_i[2] wb_clk_i wb_cyc_i wb_dat_i[0]
+ wb_dat_i[1] wb_dat_i[2] wb_dat_i[3] wb_dat_i[4] wb_dat_i[5] wb_dat_i[6] wb_dat_i[7]
+ wb_dat_o[0] wb_dat_o[1] wb_dat_o[2] wb_dat_o[3] wb_dat_o[4] wb_dat_o[5] wb_dat_o[6]
+ wb_dat_o[7] wb_inta_o wb_rst_i wb_stb_i wb_we_i VPWR VGND
XFILLER_54_258 VGND VGND VPWR VPWR sky130_fd_sc_hd__decap_4
X_2037_ _2121_/D VGND VGND VPWR VPWR _2037_/Y sky130_fd_sc_hd__inv_2
X_2106_ _2234_/Q _2220_/Q _2186_/Q VGND VGND VPWR VPWR _2106_/X sky130_fd_sc_hd__mux2_1
XFILLER_52_18 VGND VGND VPWR VPWR sky130_fd_sc_hd__decap_4
XFILLER_10_328 VGND VGND VPWR VPWR sky130_fd_sc_hd__fill_1
XFILLER_22_144 VGND VGND VPWR VPWR sky130_fd_sc_hd__decap_6
XFILLER_53_280 VGND VGND VPWR VPWR sky130_fd_sc_hd__decap_4
XFILLER_45_269 VGND VGND VPWR VPWR sky130_fd_sc_hd__decap_4
XFILLER_26_30 VGND VGND VPWR VPWR sky130_fd_sc_hd__decap_4
XFILLER_42_51 VGND VGND VPWR VPWR sky130_fd_sc_hd__decap_4
XFILLER_9_115 VGND VGND VPWR VPWR sky130_fd_sc_hd__decap_4
XFILLER_13_144 VGND VGND VPWR VPWR sky130_fd_sc_hd__decap_6
XFILLER_13_166 VGND VGND VPWR VPWR sky130_fd_sc_hd__decap_4
XFILLER_3_56 VGND VGND VPWR VPWR sky130_fd_sc_hd__fill_1
X_1270_ _1270_/A VGND VGND VPWR VPWR _1270_/X sky130_fd_sc_hd__clkbuf_2
XFILLER_36_258 VGND VGND VPWR VPWR sky130_fd_sc_hd__decap_8
XFILLER_8_181 VGND VGND VPWR VPWR sky130_fd_sc_hd__decap_8
X_1606_ _1807_/C VGND VGND VPWR VPWR _1620_/A sky130_fd_sc_hd__clkbuf_2
X_1468_ _1471_/A VGND VGND VPWR VPWR _1468_/X sky130_fd_sc_hd__clkbuf_1
X_1537_ _1539_/A VGND VGND VPWR VPWR _1537_/X sky130_fd_sc_hd__clkbuf_1
X_1399_ _1405_/A VGND VGND VPWR VPWR _1399_/X sky130_fd_sc_hd__clkbuf_1
XFILLER_27_269 VGND VGND VPWR VPWR sky130_fd_sc_hd__decap_4
XFILLER_27_258 VGND VGND VPWR VPWR sky130_fd_sc_hd__decap_4
XFILLER_27_214 VGND VGND VPWR VPWR sky130_fd_sc_hd__decap_4
XFILLER_12_87 VGND VGND VPWR VPWR sky130_fd_sc_hd__decap_4
XFILLER_18_214 VGND VGND VPWR VPWR sky130_fd_sc_hd__decap_4
XFILLER_18_258 VGND VGND VPWR VPWR sky130_fd_sc_hd__decap_4
XFILLER_41_272 VGND VGND VPWR VPWR sky130_fd_sc_hd__decap_4
XFILLER_33_206 VGND VGND VPWR VPWR sky130_fd_sc_hd__decap_4
XFILLER_5_140 VGND VGND VPWR VPWR sky130_fd_sc_hd__decap_4
X_1253_ _1257_/A VGND VGND VPWR VPWR _1253_/X sky130_fd_sc_hd__clkbuf_1
X_1322_ _2252_/Q _1330_/C _1322_/C _1337_/D VGND VGND VPWR VPWR _1332_/A sky130_fd_sc_hd__or4_4
X_1184_ _1248_/A VGND VGND VPWR VPWR _1220_/A sky130_fd_sc_hd__buf_2
XFILLER_23_53 VGND VGND VPWR VPWR sky130_fd_sc_hd__decap_4
XFILLER_0_46 VGND VGND VPWR VPWR sky130_fd_sc_hd__fill_2
XFILLER_0_57 VGND VGND VPWR VPWR sky130_fd_sc_hd__fill_1
X_1940_ _2275_/Q _1209_/B _1210_/B VGND VGND VPWR VPWR _1940_/X sky130_fd_sc_hd__a21bo_1
XFILLER_14_250 VGND VGND VPWR VPWR sky130_fd_sc_hd__decap_6
X_1871_ _2212_/Q _2204_/Q _2127_/Q _2188_/Q VGND VGND VPWR VPWR _1871_/X sky130_fd_sc_hd__or4_4
XFILLER_50_3 VGND VGND VPWR VPWR sky130_fd_sc_hd__decap_4
X_1236_ _1246_/A VGND VGND VPWR VPWR _1236_/X sky130_fd_sc_hd__clkbuf_1
XFILLER_56_117 VGND VGND VPWR VPWR sky130_fd_sc_hd__decap_6
X_1305_ _1355_/C _1337_/D VGND VGND VPWR VPWR _1306_/B sky130_fd_sc_hd__or2_1
X_2285_ _2286_/CLK _2285_/D _1194_/X VGND VGND VPWR VPWR _2285_/Q sky130_fd_sc_hd__dfrtp_1
X_1098_ _1098_/A VGND VGND VPWR VPWR _2309_/D sky130_fd_sc_hd__inv_2
X_1167_ _1273_/A VGND VGND VPWR VPWR _1793_/A sky130_fd_sc_hd__buf_1
XFILLER_55_172 VGND VGND VPWR VPWR sky130_fd_sc_hd__decap_4
XFILLER_47_106 VGND VGND VPWR VPWR sky130_fd_sc_hd__decap_8
XFILLER_43_323 VGND VGND VPWR VPWR sky130_fd_sc_hd__decap_4
XFILLER_34_96 VGND VGND VPWR VPWR sky130_fd_sc_hd__decap_6
XFILLER_34_30 VGND VGND VPWR VPWR sky130_fd_sc_hd__decap_4
XFILLER_11_275 VGND VGND VPWR VPWR sky130_fd_sc_hd__fill_1
XFILLER_7_224 VGND VGND VPWR VPWR sky130_fd_sc_hd__decap_4
XFILLER_7_268 VGND VGND VPWR VPWR sky130_fd_sc_hd__decap_4
XFILLER_11_286 VGND VGND VPWR VPWR sky130_fd_sc_hd__decap_4
X_2070_ _1937_/X _2293_/Q _2180_/D VGND VGND VPWR VPWR _2070_/X sky130_fd_sc_hd__mux2_1
XFILLER_38_117 VGND VGND VPWR VPWR sky130_fd_sc_hd__decap_8
X_1854_ _1854_/A VGND VGND VPWR VPWR _1854_/Y sky130_fd_sc_hd__inv_2
X_1923_ _2174_/Q _1266_/B _1267_/B VGND VGND VPWR VPWR _1923_/Y sky130_fd_sc_hd__a21boi_1
X_1785_ _1786_/A VGND VGND VPWR VPWR _1785_/X sky130_fd_sc_hd__clkbuf_1
XFILLER_55_29 VGND VGND VPWR VPWR sky130_fd_sc_hd__decap_4
X_1219_ _2065_/X _1216_/X _2284_/Q _1218_/X VGND VGND VPWR VPWR _2284_/D sky130_fd_sc_hd__a22o_1
X_2268_ _2268_/CLK _2268_/D _1257_/X VGND VGND VPWR VPWR _2268_/Q sky130_fd_sc_hd__dfstp_1
XFILLER_37_172 VGND VGND VPWR VPWR sky130_fd_sc_hd__decap_4
X_2199_ _2223_/CLK _2199_/D _1662_/X VGND VGND VPWR VPWR _2199_/Q sky130_fd_sc_hd__dfrtp_1
XFILLER_40_326 VGND VGND VPWR VPWR sky130_fd_sc_hd__fill_1
XFILLER_40_315 VGND VGND VPWR VPWR sky130_fd_sc_hd__decap_4
XFILLER_40_304 VGND VGND VPWR VPWR sky130_fd_sc_hd__decap_8
XFILLER_20_43 VGND VGND VPWR VPWR sky130_fd_sc_hd__fill_1
XFILLER_20_54 VGND VGND VPWR VPWR sky130_fd_sc_hd__decap_8
XFILLER_29_41 VGND VGND VPWR VPWR sky130_fd_sc_hd__decap_4
XFILLER_20_87 VGND VGND VPWR VPWR sky130_fd_sc_hd__decap_4
XPHY_395 VGND VPWR sky130_fd_sc_hd__tapvpwrvgnd_1
XPHY_384 VGND VPWR sky130_fd_sc_hd__tapvpwrvgnd_1
XPHY_373 VGND VPWR sky130_fd_sc_hd__tapvpwrvgnd_1
XPHY_362 VGND VPWR sky130_fd_sc_hd__tapvpwrvgnd_1
XFILLER_43_197 VGND VGND VPWR VPWR sky130_fd_sc_hd__decap_6
XPHY_351 VGND VPWR sky130_fd_sc_hd__tapvpwrvgnd_1
XPHY_340 VGND VPWR sky130_fd_sc_hd__tapvpwrvgnd_1
Xclkbuf_leaf_14_wb_clk_i clkbuf_leaf_9_wb_clk_i/A VGND VGND VPWR VPWR _2312_/CLK sky130_fd_sc_hd__clkbuf_16
XANTENNA_5 _2304_/Q VGND VGND VPWR VPWR sky130_fd_sc_hd__diode_2
XFILLER_3_271 VGND VGND VPWR VPWR sky130_fd_sc_hd__decap_4
X_1570_ _1576_/A VGND VGND VPWR VPWR _1819_/A sky130_fd_sc_hd__clkbuf_2
X_2053_ _1991_/Y _2289_/Q _2060_/S VGND VGND VPWR VPWR _2112_/D sky130_fd_sc_hd__mux2_2
X_2122_ _2224_/CLK _2122_/D VGND VGND VPWR VPWR _2122_/Q sky130_fd_sc_hd__dfxtp_1
XFILLER_13_3 VGND VGND VPWR VPWR sky130_fd_sc_hd__fill_1
XFILLER_19_172 VGND VGND VPWR VPWR sky130_fd_sc_hd__fill_1
XFILLER_22_315 VGND VGND VPWR VPWR sky130_fd_sc_hd__decap_4
X_1906_ _2095_/X _1921_/B VGND VGND VPWR VPWR _2169_/D sky130_fd_sc_hd__nor2_1
X_1837_ _1840_/A _1837_/B VGND VGND VPWR VPWR _2146_/D sky130_fd_sc_hd__nor2_1
X_1768_ _1768_/A VGND VGND VPWR VPWR _1768_/X sky130_fd_sc_hd__clkbuf_1
XFILLER_1_219 VGND VGND VPWR VPWR sky130_fd_sc_hd__decap_8
X_1699_ _1699_/A VGND VGND VPWR VPWR _2194_/D sky130_fd_sc_hd__inv_2
XFILLER_40_156 VGND VGND VPWR VPWR sky130_fd_sc_hd__fill_1
XFILLER_40_123 VGND VGND VPWR VPWR sky130_fd_sc_hd__decap_4
XFILLER_31_53 VGND VGND VPWR VPWR sky130_fd_sc_hd__decap_4
XFILLER_15_87 VGND VGND VPWR VPWR sky130_fd_sc_hd__decap_4
XFILLER_15_98 VGND VGND VPWR VPWR sky130_fd_sc_hd__decap_4
Xoutput20 _2121_/D VGND VGND VPWR VPWR scl_padoen_o sky130_fd_sc_hd__clkbuf_2
Xoutput31 _2119_/Q VGND VGND VPWR VPWR wb_dat_o[7] sky130_fd_sc_hd__clkbuf_2
XFILLER_56_72 VGND VGND VPWR VPWR sky130_fd_sc_hd__decap_4
XFILLER_48_201 VGND VGND VPWR VPWR sky130_fd_sc_hd__decap_6
XFILLER_31_167 VGND VGND VPWR VPWR sky130_fd_sc_hd__decap_4
XPHY_170 VGND VPWR sky130_fd_sc_hd__tapvpwrvgnd_1
X_1622_ _2132_/Q VGND VGND VPWR VPWR _1809_/B sky130_fd_sc_hd__inv_2
XPHY_181 VGND VPWR sky130_fd_sc_hd__tapvpwrvgnd_1
XPHY_192 VGND VPWR sky130_fd_sc_hd__tapvpwrvgnd_1
X_1553_ _2185_/Q _1553_/B _1961_/B VGND VGND VPWR VPWR _1553_/X sky130_fd_sc_hd__or3_1
X_1484_ _1487_/A VGND VGND VPWR VPWR _1484_/X sky130_fd_sc_hd__clkbuf_1
XFILLER_54_204 VGND VGND VPWR VPWR sky130_fd_sc_hd__fill_1
XFILLER_39_278 VGND VGND VPWR VPWR sky130_fd_sc_hd__decap_6
X_2105_ _2104_/X _2194_/Q _2185_/Q VGND VGND VPWR VPWR _2105_/X sky130_fd_sc_hd__mux2_1
X_2036_ _2150_/D VGND VGND VPWR VPWR _2144_/D sky130_fd_sc_hd__clkbuf_1
XFILLER_45_237 VGND VGND VPWR VPWR sky130_fd_sc_hd__decap_4
XFILLER_13_123 VGND VGND VPWR VPWR sky130_fd_sc_hd__fill_1
XFILLER_13_156 VGND VGND VPWR VPWR sky130_fd_sc_hd__decap_4
XFILLER_42_85 VGND VGND VPWR VPWR sky130_fd_sc_hd__fill_1
XFILLER_42_30 VGND VGND VPWR VPWR sky130_fd_sc_hd__decap_4
XFILLER_3_13 VGND VGND VPWR VPWR sky130_fd_sc_hd__decap_12
XFILLER_51_229 VGND VGND VPWR VPWR sky130_fd_sc_hd__decap_4
X_1536_ _1523_/X _1527_/X _2105_/X _2220_/Q _1528_/X VGND VGND VPWR VPWR _2220_/D
+ sky130_fd_sc_hd__a32o_1
XFILLER_8_193 VGND VGND VPWR VPWR sky130_fd_sc_hd__decap_6
X_1605_ _1611_/A VGND VGND VPWR VPWR _1605_/X sky130_fd_sc_hd__clkbuf_1
X_1467_ _1461_/Y _1460_/X _1466_/Y _1463_/X VGND VGND VPWR VPWR _2235_/D sky130_fd_sc_hd__o22ai_1
X_1398_ _1398_/A VGND VGND VPWR VPWR _2252_/D sky130_fd_sc_hd__inv_2
XFILLER_42_218 VGND VGND VPWR VPWR sky130_fd_sc_hd__decap_4
XFILLER_27_248 VGND VGND VPWR VPWR sky130_fd_sc_hd__fill_2
X_2019_ _2124_/Q VGND VGND VPWR VPWR _2019_/Y sky130_fd_sc_hd__inv_2
XFILLER_50_284 VGND VGND VPWR VPWR sky130_fd_sc_hd__decap_6
XFILLER_18_237 VGND VGND VPWR VPWR sky130_fd_sc_hd__decap_4
XFILLER_33_229 VGND VGND VPWR VPWR sky130_fd_sc_hd__decap_4
XFILLER_26_270 VGND VGND VPWR VPWR sky130_fd_sc_hd__decap_6
XFILLER_5_196 VGND VGND VPWR VPWR sky130_fd_sc_hd__decap_4
XFILLER_5_185 VGND VGND VPWR VPWR sky130_fd_sc_hd__decap_4
X_1252_ _2068_/X _1243_/X _2271_/Q _1244_/X VGND VGND VPWR VPWR _2271_/D sky130_fd_sc_hd__a22o_1
X_1321_ _1377_/A _1337_/B _1337_/A VGND VGND VPWR VPWR _1322_/C sky130_fd_sc_hd__or3b_1
X_1183_ _1183_/A VGND VGND VPWR VPWR _2288_/D sky130_fd_sc_hd__inv_2
XFILLER_17_281 VGND VGND VPWR VPWR sky130_fd_sc_hd__decap_4
XFILLER_32_295 VGND VGND VPWR VPWR sky130_fd_sc_hd__fill_1
X_1519_ _1510_/Y _1830_/B _2040_/B _2148_/D VGND VGND VPWR VPWR _1519_/X sky130_fd_sc_hd__a31o_1
XFILLER_55_310 VGND VGND VPWR VPWR sky130_fd_sc_hd__decap_4
XFILLER_23_284 VGND VGND VPWR VPWR sky130_fd_sc_hd__fill_1
XFILLER_15_229 VGND VGND VPWR VPWR sky130_fd_sc_hd__decap_4
XFILLER_23_98 VGND VGND VPWR VPWR sky130_fd_sc_hd__decap_6
XFILLER_2_144 VGND VGND VPWR VPWR sky130_fd_sc_hd__decap_4
XFILLER_46_310 VGND VGND VPWR VPWR sky130_fd_sc_hd__decap_4
XFILLER_0_14 VGND VGND VPWR VPWR sky130_fd_sc_hd__fill_1
XFILLER_0_25 VGND VGND VPWR VPWR sky130_fd_sc_hd__decap_4
X_1870_ _2311_/Q _1896_/B _2127_/Q VGND VGND VPWR VPWR _2123_/D sky130_fd_sc_hd__and3_1
XFILLER_43_3 VGND VGND VPWR VPWR sky130_fd_sc_hd__decap_4
X_1235_ _1248_/A VGND VGND VPWR VPWR _1246_/A sky130_fd_sc_hd__buf_1
XFILLER_56_107 VGND VGND VPWR VPWR sky130_fd_sc_hd__decap_8
XFILLER_49_170 VGND VGND VPWR VPWR sky130_fd_sc_hd__fill_1
X_2284_ _2295_/CLK _2284_/D _1199_/X VGND VGND VPWR VPWR _2284_/Q sky130_fd_sc_hd__dfrtp_1
X_1166_ _1159_/X _1095_/A _1161_/X _2293_/Q _1156_/X VGND VGND VPWR VPWR _2293_/D
+ sky130_fd_sc_hd__o32a_1
X_1304_ _1313_/C _1324_/B VGND VGND VPWR VPWR _1337_/D sky130_fd_sc_hd__or2_2
XFILLER_52_313 VGND VGND VPWR VPWR sky130_fd_sc_hd__fill_1
X_1097_ _1095_/Y _1073_/X _1085_/X _1096_/Y _1080_/X VGND VGND VPWR VPWR _1098_/A
+ sky130_fd_sc_hd__o32a_1
X_1999_ _2204_/Q VGND VGND VPWR VPWR _1999_/Y sky130_fd_sc_hd__inv_2
XFILLER_34_20 VGND VGND VPWR VPWR sky130_fd_sc_hd__decap_8
XFILLER_18_87 VGND VGND VPWR VPWR sky130_fd_sc_hd__decap_4
XFILLER_50_30 VGND VGND VPWR VPWR sky130_fd_sc_hd__decap_4
XFILLER_7_214 VGND VGND VPWR VPWR sky130_fd_sc_hd__fill_2
XFILLER_11_243 VGND VGND VPWR VPWR sky130_fd_sc_hd__fill_1
XFILLER_15_7 VGND VGND VPWR VPWR sky130_fd_sc_hd__decap_4
X_1922_ _2303_/Q VGND VGND VPWR VPWR _1922_/Y sky130_fd_sc_hd__inv_2
XFILLER_46_162 VGND VGND VPWR VPWR sky130_fd_sc_hd__fill_1
X_1853_ _1971_/A _1852_/Y _1579_/Y VGND VGND VPWR VPWR _2137_/D sky130_fd_sc_hd__o21ai_1
X_1784_ _1786_/A VGND VGND VPWR VPWR _1784_/X sky130_fd_sc_hd__clkbuf_1
X_1218_ _1244_/A VGND VGND VPWR VPWR _1218_/X sky130_fd_sc_hd__clkbuf_2
X_1149_ _1141_/X input8/X _1128_/B _2297_/Q _1132_/A VGND VGND VPWR VPWR _2297_/D
+ sky130_fd_sc_hd__o32a_1
X_2267_ _2267_/CLK _2267_/D _1276_/X VGND VGND VPWR VPWR _2267_/Q sky130_fd_sc_hd__dfstp_1
X_2198_ _2223_/CLK _2198_/D _1670_/X VGND VGND VPWR VPWR _2198_/Q sky130_fd_sc_hd__dfrtp_4
XFILLER_29_86 VGND VGND VPWR VPWR sky130_fd_sc_hd__decap_6
XFILLER_45_30 VGND VGND VPWR VPWR sky130_fd_sc_hd__decap_4
XPHY_352 VGND VPWR sky130_fd_sc_hd__tapvpwrvgnd_1
XPHY_341 VGND VPWR sky130_fd_sc_hd__tapvpwrvgnd_1
XPHY_330 VGND VPWR sky130_fd_sc_hd__tapvpwrvgnd_1
XFILLER_28_184 VGND VGND VPWR VPWR sky130_fd_sc_hd__decap_8
XFILLER_28_151 VGND VGND VPWR VPWR sky130_fd_sc_hd__decap_4
XPHY_396 VGND VPWR sky130_fd_sc_hd__tapvpwrvgnd_1
XPHY_385 VGND VPWR sky130_fd_sc_hd__tapvpwrvgnd_1
XPHY_374 VGND VPWR sky130_fd_sc_hd__tapvpwrvgnd_1
XPHY_363 VGND VPWR sky130_fd_sc_hd__tapvpwrvgnd_1
XANTENNA_6 input7/X VGND VGND VPWR VPWR sky130_fd_sc_hd__diode_2
XFILLER_6_57 VGND VGND VPWR VPWR sky130_fd_sc_hd__decap_4
X_2121_ _2241_/CLK _2121_/D VGND VGND VPWR VPWR _2121_/Q sky130_fd_sc_hd__dfxtp_1
X_2052_ _2224_/Q _2261_/Q _2198_/Q VGND VGND VPWR VPWR _2052_/X sky130_fd_sc_hd__mux2_2
XFILLER_19_140 VGND VGND VPWR VPWR sky130_fd_sc_hd__decap_4
XFILLER_19_184 VGND VGND VPWR VPWR sky130_fd_sc_hd__decap_8
X_1905_ _2169_/Q _1264_/B _1912_/C VGND VGND VPWR VPWR _1905_/Y sky130_fd_sc_hd__a21boi_1
XFILLER_22_305 VGND VGND VPWR VPWR sky130_fd_sc_hd__decap_8
X_1698_ _1095_/Y _1113_/A _1696_/X _1697_/Y _1684_/X VGND VGND VPWR VPWR _1699_/A
+ sky130_fd_sc_hd__o32a_1
X_1767_ _1768_/A VGND VGND VPWR VPWR _1767_/X sky130_fd_sc_hd__clkbuf_1
X_1836_ _2183_/Q _1832_/Y _1510_/Y _1835_/Y _1799_/S VGND VGND VPWR VPWR _1837_/B
+ sky130_fd_sc_hd__o32a_1
XFILLER_25_110 VGND VGND VPWR VPWR sky130_fd_sc_hd__decap_4
Xoutput21 _2050_/LO VGND VGND VPWR VPWR sda_pad_o sky130_fd_sc_hd__clkbuf_2
Xoutput32 _2123_/Q VGND VGND VPWR VPWR wb_inta_o sky130_fd_sc_hd__clkbuf_2
XFILLER_31_124 VGND VGND VPWR VPWR sky130_fd_sc_hd__decap_6
XPHY_160 VGND VPWR sky130_fd_sc_hd__tapvpwrvgnd_1
XPHY_171 VGND VPWR sky130_fd_sc_hd__tapvpwrvgnd_1
XPHY_182 VGND VPWR sky130_fd_sc_hd__tapvpwrvgnd_1
XPHY_193 VGND VPWR sky130_fd_sc_hd__tapvpwrvgnd_1
XFILLER_16_198 VGND VGND VPWR VPWR sky130_fd_sc_hd__fill_2
X_1552_ _1667_/B VGND VGND VPWR VPWR _1961_/B sky130_fd_sc_hd__clkbuf_2
X_1621_ _1621_/A VGND VGND VPWR VPWR _2047_/C sky130_fd_sc_hd__clkbuf_2
XFILLER_39_213 VGND VGND VPWR VPWR sky130_fd_sc_hd__fill_1
X_2104_ _2233_/Q _2219_/Q _2186_/Q VGND VGND VPWR VPWR _2104_/X sky130_fd_sc_hd__mux2_1
X_1483_ _1479_/Y _1460_/A _1664_/A _1463_/A VGND VGND VPWR VPWR _2230_/D sky130_fd_sc_hd__o22ai_1
X_2035_ _2144_/Q _2040_/B VGND VGND VPWR VPWR _2149_/D sky130_fd_sc_hd__and2_1
XFILLER_22_124 VGND VGND VPWR VPWR sky130_fd_sc_hd__decap_4
X_1819_ _1819_/A _1819_/B VGND VGND VPWR VPWR _1820_/C sky130_fd_sc_hd__or2_1
XFILLER_26_87 VGND VGND VPWR VPWR sky130_fd_sc_hd__decap_4
XFILLER_26_65 VGND VGND VPWR VPWR sky130_fd_sc_hd__decap_4
XFILLER_3_58 VGND VGND VPWR VPWR sky130_fd_sc_hd__decap_8
XFILLER_3_25 VGND VGND VPWR VPWR sky130_fd_sc_hd__decap_6
XFILLER_36_249 VGND VGND VPWR VPWR sky130_fd_sc_hd__decap_8
XFILLER_29_290 VGND VGND VPWR VPWR sky130_fd_sc_hd__fill_1
X_1535_ _1539_/A VGND VGND VPWR VPWR _1535_/X sky130_fd_sc_hd__clkbuf_1
X_1604_ _1604_/A VGND VGND VPWR VPWR _2205_/D sky130_fd_sc_hd__inv_2
X_1466_ _2234_/Q VGND VGND VPWR VPWR _1466_/Y sky130_fd_sc_hd__inv_2
X_1397_ _1396_/Y _1358_/A _1383_/Y _1330_/B _1361_/A VGND VGND VPWR VPWR _1398_/A
+ sky130_fd_sc_hd__o32a_1
X_2018_ _1820_/A _1978_/X _1692_/Y _1980_/A VGND VGND VPWR VPWR _2018_/X sky130_fd_sc_hd__o22a_1
XFILLER_2_304 VGND VGND VPWR VPWR sky130_fd_sc_hd__decap_8
XFILLER_12_12 VGND VGND VPWR VPWR sky130_fd_sc_hd__decap_4
XFILLER_12_45 VGND VGND VPWR VPWR sky130_fd_sc_hd__decap_4
XFILLER_2_315 VGND VGND VPWR VPWR sky130_fd_sc_hd__decap_4
XFILLER_37_53 VGND VGND VPWR VPWR sky130_fd_sc_hd__decap_4
XFILLER_5_164 VGND VGND VPWR VPWR sky130_fd_sc_hd__decap_6
X_1320_ _2254_/Q VGND VGND VPWR VPWR _1337_/A sky130_fd_sc_hd__buf_1
X_1251_ _1257_/A VGND VGND VPWR VPWR _1251_/X sky130_fd_sc_hd__clkbuf_1
X_1182_ _1107_/Y _1113_/X _1061_/X _1180_/Y _1181_/X VGND VGND VPWR VPWR _1183_/A
+ sky130_fd_sc_hd__o32a_1
XFILLER_32_252 VGND VGND VPWR VPWR sky130_fd_sc_hd__decap_4
XFILLER_32_230 VGND VGND VPWR VPWR sky130_fd_sc_hd__decap_8
Xclkbuf_leaf_9_wb_clk_i clkbuf_leaf_9_wb_clk_i/A VGND VGND VPWR VPWR _2220_/CLK sky130_fd_sc_hd__clkbuf_16
X_1449_ _1449_/A VGND VGND VPWR VPWR _1449_/X sky130_fd_sc_hd__clkbuf_1
X_1518_ _1840_/A _1518_/B VGND VGND VPWR VPWR _2148_/D sky130_fd_sc_hd__nor2_1
XFILLER_55_333 VGND VGND VPWR VPWR sky130_fd_sc_hd__decap_4
XFILLER_23_66 VGND VGND VPWR VPWR sky130_fd_sc_hd__decap_8
XFILLER_2_123 VGND VGND VPWR VPWR sky130_fd_sc_hd__decap_8
XFILLER_48_85 VGND VGND VPWR VPWR sky130_fd_sc_hd__fill_1
XFILLER_48_30 VGND VGND VPWR VPWR sky130_fd_sc_hd__decap_6
XFILLER_46_333 VGND VGND VPWR VPWR sky130_fd_sc_hd__decap_4
XFILLER_2_189 VGND VGND VPWR VPWR sky130_fd_sc_hd__decap_4
XFILLER_0_59 VGND VGND VPWR VPWR sky130_fd_sc_hd__decap_4
XFILLER_14_241 VGND VGND VPWR VPWR sky130_fd_sc_hd__decap_4
XFILLER_14_296 VGND VGND VPWR VPWR sky130_fd_sc_hd__decap_8